# generated by PACMAN-DDEC6 charge (https://github.com/sxm13/PACMAN) 
data_structure
data_image0
_chemical_formula_structural       Zn4H16C24N12O8
_chemical_formula_sum              "Zn4 H16 C24 N12 O8"
_cell_length_a       14.1181
_cell_length_b       10.2386
_cell_length_c       9.90829
_cell_angle_alpha    89.889
_cell_angle_beta     116.155
_cell_angle_gamma    89.942

_symmetry_space_group_name_H-M    "P 1"
_symmetry_Int_Tables_number       1

loop_
  _symmetry_equiv_pos_as_xyz
  'x, y, z'

loop_
  _atom_site_type_symbol
  _atom_site_label
  _atom_site_symmetry_multiplicity
  _atom_site_fract_x
  _atom_site_fract_y
  _atom_site_fract_z
  _atom_site_occupancy
  _atom_site_charge
Zn  Zn1       1.0  0.09019  0.08141  0.42715  1.0000 0.6869195076
Zn  Zn2       1.0  0.90992  0.58213  0.07335  1.0000 0.6869195076
Zn  Zn3       1.0  0.90991  0.91849  0.57289  1.0000 0.6869195076
Zn  Zn4       1.0  0.09002  0.41776  0.92667  1.0000 0.6869195076
H   H1        1.0  0.05793  0.85292  0.18478  1.0000 0.1169958988
H   H2        1.0  0.86558  0.66523  0.35320  1.0000 0.1169958988
H   H3        1.0  0.94243  0.35317  0.31575  1.0000 0.1169958988
H   H4        1.0  0.13389  0.16442  0.14660  1.0000 0.1169958988
H   H5        1.0  0.94209  0.14688  0.81515  1.0000 0.1169958988
H   H6        1.0  0.13469  0.33455  0.64713  1.0000 0.1169958988
H   H7        1.0  0.05742  0.64666  0.68416  1.0000 0.1169958988
H   H8        1.0  0.86602  0.83545  0.85339  1.0000 0.1169958988
H   H9        1.0  0.57376  0.92774  0.32630  1.0000 0.1169958988
H   H10       1.0  0.62030  0.07059  0.75927  1.0000 0.1143612586
H   H11       1.0  0.42636  0.07253  0.67355  1.0000 0.1169958988
H   H12       1.0  0.37980  0.92956  0.24063  1.0000 0.1143612586
H   H13       1.0  0.57349  0.57526  0.82703  1.0000 0.1143612586
H   H14       1.0  0.62041  0.42767  0.25900  1.0000 0.1143612586
H   H15       1.0  0.42643  0.42490  0.17300  1.0000 0.1143612586
H   H16       1.0  0.37953  0.57251  0.74103  1.0000 0.1143612586
C   C1        1.0  0.01294  0.83261  0.24772  1.0000 0.1661023768
C   C2        1.0  0.91484  0.73744  0.33379  1.0000 0.1611930998
C   C3        1.0  0.98721  0.33264  0.25258  1.0000 0.1661023768
C   C4        1.0  0.08482  0.23692  0.16610  1.0000 0.1611930998
C   C5        1.0  0.98718  0.16720  0.75234  1.0000 0.1661023768
C   C6        1.0  0.08537  0.26236  0.66645  1.0000 0.1611930998
C   C7        1.0  0.01266  0.66719  0.74735  1.0000 0.1661023768
C   C8        1.0  0.91507  0.76294  0.83386  1.0000 0.1611930998
C   C9        1.0  0.72913  0.99305  0.60419  1.0000 0.557116461
C   C10       1.0  0.61098  0.99868  0.54921  1.0000 -0.020771618
C   C11       1.0  0.54148  0.95956  0.40249  1.0000 -0.0919338185
C   C12       1.0  0.56756  0.03967  0.64554  1.0000 -0.0919338185
C   C13       1.0  0.27098  0.00706  0.39572  1.0000 0.557116461
C   C14       1.0  0.38912  0.00150  0.45067  1.0000 -0.020771618
C   C15       1.0  0.45863  0.04066  0.59737  1.0000 -0.0919338185
C   C16       1.0  0.43255  0.96052  0.35434  1.0000 -0.0919338185
C   C17       1.0  0.72907  0.50805  0.10464  1.0000 0.557116461
C   C18       1.0  0.61093  0.50203  0.04948  1.0000 -0.020771618
C   C19       1.0  0.54130  0.54222  0.90295  1.0000 -0.0919338185
C   C20       1.0  0.56758  0.45945  0.14542  1.0000 -0.0919338185
C   C21       1.0  0.27084  0.49211  0.89538  1.0000 0.557116461
C   C22       1.0  0.38900  0.49815  0.95055  1.0000 -0.020771618
C   C23       1.0  0.45863  0.45795  0.09708  1.0000 -0.0919338185
C   C24       1.0  0.43235  0.54073  0.85461  1.0000 -0.0919338185
N   N1        1.0  0.01118  0.90990  0.35467  1.0000 -0.1834431058
N   N2        1.0  0.94679  0.84928  0.40933  1.0000 -0.1903825132
N   N3        1.0  0.95265  0.72478  0.23003  1.0000 -0.3247247366
N   N4        1.0  0.98884  0.41005  0.14534  1.0000 -0.1834431058
N   N5        1.0  0.05290  0.34903  0.09037  1.0000 -0.1903825132
N   N6        1.0  0.04730  0.22441  0.27021  1.0000 -0.325220379
N   N7        1.0  0.98900  0.08992  0.64543  1.0000 -0.1834431058
N   N8        1.0  0.05343  0.15054  0.59086  1.0000 -0.1903825132
N   N9        1.0  0.04748  0.27502  0.77011  1.0000 -0.3247247366
N   N10       1.0  0.01102  0.58978  0.85458  1.0000 -0.1834431058
N   N11       1.0  0.94697  0.65081  0.90956  1.0000 -0.1903825132
N   N12       1.0  0.95260  0.77544  0.72975  1.0000 -0.325220379
O   O1        1.0  0.75815  0.95358  0.50359  1.0000 -0.5619677929
O   O2        1.0  0.78728  0.02359  0.73779  1.0000 -0.5699578552
O   O3        1.0  0.24197  0.04653  0.49633  1.0000 -0.5619677929
O   O4        1.0  0.21282  0.97644  0.26215  1.0000 -0.5699578552
O   O5        1.0  0.75805  0.54820  0.00413  1.0000 -0.5619677929
O   O6        1.0  0.78728  0.47713  0.23833  1.0000 -0.5699578552
O   O7        1.0  0.24186  0.45203  0.99591  1.0000 -0.5619677929
O   O8        1.0  0.21265  0.52295  0.76166  1.0000 -0.5699578552
