# generated by PACMAN-DDEC6 charge (https://github.com/sxm13/PACMAN) 
data_structure
data_image0
_chemical_formula_structural       Zn4H8C12N12O8
_chemical_formula_sum              "Zn4 H8 C12 N12 O8"
_cell_length_a       9.03026
_cell_length_b       10.0498
_cell_length_c       9.51671
_cell_angle_alpha    89.9988
_cell_angle_beta     115.799
_cell_angle_gamma    89.9899

_symmetry_space_group_name_H-M    "P 1"
_symmetry_Int_Tables_number       1

loop_
  _symmetry_equiv_pos_as_xyz
  'x, y, z'

loop_
  _atom_site_type_symbol
  _atom_site_label
  _atom_site_symmetry_multiplicity
  _atom_site_fract_x
  _atom_site_fract_y
  _atom_site_fract_z
  _atom_site_occupancy
  _atom_site_charge
Zn  Zn1       1.0  0.17219  0.06231  0.42952  1.0000 0.7028350452
Zn  Zn2       1.0  0.82781  0.56239  0.07053  1.0000 0.7028350452
Zn  Zn3       1.0  0.82773  0.93773  0.57050  1.0000 0.7028350452
Zn  Zn4       1.0  0.17229  0.43763  0.92948  1.0000 0.7028350452
H   H1        1.0  0.09666  0.81708  0.18999  1.0000 0.1141542298
H   H2        1.0  0.74850  0.68434  0.34314  1.0000 0.1141542298
H   H3        1.0  0.90360  0.31728  0.31027  1.0000 0.1141542298
H   H4        1.0  0.25144  0.18423  0.15683  1.0000 0.1150044421
H   H5        1.0  0.90327  0.18303  0.80999  1.0000 0.1141542298
H   H6        1.0  0.25136  0.31572  0.65674  1.0000 0.1141542298
H   H7        1.0  0.09655  0.68285  0.68981  1.0000 0.1141542298
H   H8        1.0  0.74861  0.81575  0.84320  1.0000 0.1141542298
C   C1        1.0  0.01985  0.81010  0.25146  1.0000 0.1594972717
C   C2        1.0  0.84354  0.74285  0.33111  1.0000 0.1594972717
C   C3        1.0  0.52532  0.02700  0.58521  1.0000 0.4755388071
C   C4        1.0  0.98031  0.31021  0.24871  1.0000 0.1594972717
C   C5        1.0  0.15647  0.24281  0.16893  1.0000 0.1594972717
C   C6        1.0  0.47466  0.52705  0.91484  1.0000 0.4755388071
C   C7        1.0  0.98005  0.18999  0.74850  1.0000 0.1594972717
C   C8        1.0  0.15632  0.25722  0.66879  1.0000 0.1594972717
C   C9        1.0  0.47457  0.97291  0.41489  1.0000 0.4737790296
C   C10       1.0  0.01980  0.68986  0.75134  1.0000 0.1594972717
C   C11       1.0  0.84360  0.75720  0.83111  1.0000 0.1594972717
C   C12       1.0  0.52548  0.47275  0.08509  1.0000 0.4755388071
N   N1        1.0  0.02730  0.89524  0.36254  1.0000 -0.1914527291
N   N2        1.0  0.91214  0.85221  0.41291  1.0000 -0.1914527291
N   N3        1.0  0.90597  0.71393  0.22800  1.0000 -0.3320016494
N   N4        1.0  0.97281  0.39532  0.13758  1.0000 -0.1914527291
N   N5        1.0  0.08789  0.35220  0.08713  1.0000 -0.1914527291
N   N6        1.0  0.09412  0.21396  0.27211  1.0000 -0.3320016494
N   N7        1.0  0.97257  0.10483  0.63743  1.0000 -0.1914527291
N   N8        1.0  0.08770  0.14785  0.58701  1.0000 -0.1914527291
N   N9        1.0  0.09393  0.28615  0.77192  1.0000 -0.3320016494
N   N10       1.0  0.02734  0.60473  0.86248  1.0000 -0.1914527291
N   N11       1.0  0.91223  0.64782  0.91292  1.0000 -0.1914527291
N   N12       1.0  0.90595  0.78608  0.72794  1.0000 -0.3320016494
O   O1        1.0  0.40956  0.07098  0.61343  1.0000 -0.4987985199
O   O2        1.0  0.67599  0.02111  0.67822  1.0000 -0.5117438366
O   O3        1.0  0.59038  0.57123  0.88669  1.0000 -0.4987985199
O   O4        1.0  0.32400  0.52112  0.82181  1.0000 -0.5117438366
O   O5        1.0  0.59033  0.92886  0.38670  1.0000 -0.4987985199
O   O6        1.0  0.32393  0.97889  0.32184  1.0000 -0.5117438366
O   O7        1.0  0.40977  0.42847  0.11319  1.0000 -0.4987985199
O   O8        1.0  0.67611  0.47881  0.17817  1.0000 -0.5117438366
