# generated by PACMAN-DDEC6 charge (https://github.com/sxm13/PACMAN) 
data_structure
data_image0
_chemical_formula_structural       Zn4H20C28N12O8
_chemical_formula_sum              "Zn4 H20 C28 N12 O8"
_cell_length_a       13.8746
_cell_length_b       10.597
_cell_length_c       9.86887
_cell_angle_alpha    90.0052
_cell_angle_beta     119.121
_cell_angle_gamma    89.9934

_symmetry_space_group_name_H-M    "P 1"
_symmetry_Int_Tables_number       1

loop_
  _symmetry_equiv_pos_as_xyz
  'x, y, z'

loop_
  _atom_site_type_symbol
  _atom_site_label
  _atom_site_symmetry_multiplicity
  _atom_site_fract_x
  _atom_site_fract_y
  _atom_site_fract_z
  _atom_site_occupancy
  _atom_site_charge
Zn  Zn1       1.0  0.08654  0.08733  0.42981  1.0000 0.6843235285
Zn  Zn2       1.0  0.91520  0.58733  0.08348  1.0000 0.6843235285
Zn  Zn3       1.0  0.91536  0.91271  0.58346  1.0000 0.6843235285
Zn  Zn4       1.0  0.08635  0.41268  0.92982  1.0000 0.6843235285
H   H1        1.0  0.05482  0.86368  0.18581  1.0000 0.1107546357
H   H2        1.0  0.88148  0.66560  0.37056  1.0000 0.1107546357
H   H3        1.0  0.94713  0.36381  0.32773  1.0000 0.1107546357
H   H4        1.0  0.12010  0.16547  0.14257  1.0000 0.1107546357
H   H5        1.0  0.94676  0.13646  0.82707  1.0000 0.1107546357
H   H6        1.0  0.12081  0.33431  0.64327  1.0000 0.1107546357
H   H7        1.0  0.05483  0.63632  0.68601  1.0000 0.1107546357
H   H8        1.0  0.88099  0.83436  0.87008  1.0000 0.1107546357
H   H9        1.0  0.42232  0.17981  0.33226  1.0000 0.1107546357
H   H10       1.0  0.47232  0.02859  0.72846  1.0000 0.1107546357
H   H11       1.0  0.59613  0.19036  0.64372  1.0000 0.1107546357
H   H12       1.0  0.52927  0.97183  0.28327  1.0000 0.1107546357
H   H13       1.0  0.40540  0.81008  0.36797  1.0000 0.1107546357
H   H14       1.0  0.57922  0.82061  0.67940  1.0000 0.1107546357
H   H15       1.0  0.42255  0.32051  0.83371  1.0000 0.1107546357
H   H16       1.0  0.47271  0.47081  0.23040  1.0000 0.1107546357
H   H17       1.0  0.59645  0.30942  0.14501  1.0000 0.1107546357
H   H18       1.0  0.52946  0.52876  0.78519  1.0000 0.1107546357
H   H19       1.0  0.40573  0.69014  0.87057  1.0000 0.1107546357
H   H20       1.0  0.57964  0.67903  0.18196  1.0000 0.1107546357
C   C1        1.0  0.01350  0.84035  0.25212  1.0000 0.1630787642
C   C2        1.0  0.92547  0.73981  0.34703  1.0000 0.1630787642
C   C3        1.0  0.98834  0.34041  0.26130  1.0000 0.1630787642
C   C4        1.0  0.07619  0.23974  0.16618  1.0000 0.1630787642
C   C5        1.0  0.98830  0.15972  0.76104  1.0000 0.1630787642
C   C6        1.0  0.07667  0.26015  0.66658  1.0000 0.1630787642
C   C7        1.0  0.01335  0.65964  0.75212  1.0000 0.1630787642
C   C8        1.0  0.92508  0.76016  0.84670  1.0000 0.1630787642
C   C9        1.0  0.44901  0.89427  0.42957  1.0000 -0.0909591785
C   C10       1.0  0.54355  0.90049  0.60203  1.0000 -0.0849707111
C   C11       1.0  0.60847  0.99135  0.55216  1.0000 -0.0240843718
C   C12       1.0  0.51506  0.98442  0.38107  1.0000 -0.0909591785
C   C13       1.0  0.55255  0.10615  0.58214  1.0000 -0.0909591785
C   C14       1.0  0.48652  0.01600  0.63065  1.0000 -0.0909591785
C   C15       1.0  0.45800  0.09993  0.40967  1.0000 -0.0909591785
C   C16       1.0  0.39310  0.00907  0.45956  1.0000 -0.0240843718
C   C17       1.0  0.73098  0.98050  0.60929  1.0000 0.5724588723
C   C18       1.0  0.27061  0.01981  0.40268  1.0000 0.5724588723
C   C19       1.0  0.44933  0.60585  0.93188  1.0000 -0.0909591785
C   C20       1.0  0.54392  0.59931  0.10430  1.0000 -0.0849707111
C   C21       1.0  0.60876  0.50868  0.05402  1.0000 -0.0240843718
C   C22       1.0  0.51529  0.51591  0.88300  1.0000 -0.0909591785
C   C23       1.0  0.55286  0.39373  0.08371  1.0000 -0.0909591785
C   C24       1.0  0.48687  0.48366  0.13258  1.0000 -0.0909591785
C   C25       1.0  0.45826  0.40026  0.91131  1.0000 -0.0909591785
C   C26       1.0  0.39341  0.49091  0.96153  1.0000 -0.0240843718
C   C27       1.0  0.73123  0.51953  0.11084  1.0000 0.5724588723
C   C28       1.0  0.27089  0.48018  0.90437  1.0000 0.5724588723
N   N1        1.0  0.01112  0.91560  0.35877  1.0000 -0.1843736727
N   N2        1.0  0.95289  0.85127  0.41904  1.0000 -0.1925720184
N   N3        1.0  0.95983  0.73014  0.24001  1.0000 -0.3234650104
N   N4        1.0  0.99071  0.41564  0.15463  1.0000 -0.1843736727
N   N5        1.0  0.04883  0.35123  0.09424  1.0000 -0.1925720184
N   N6        1.0  0.04190  0.23013  0.27327  1.0000 -0.3234650104
N   N7        1.0  0.99086  0.08441  0.65457  1.0000 -0.1843736727
N   N8        1.0  0.04929  0.14869  0.59455  1.0000 -0.1925720184
N   N9        1.0  0.04205  0.26989  0.77331  1.0000 -0.3234650104
N   N10       1.0  0.01083  0.58437  0.85865  1.0000 -0.1925720184
N   N11       1.0  0.95245  0.64870  0.91872  1.0000 -0.1925720184
N   N12       1.0  0.95964  0.76985  0.73991  1.0000 -0.3234650104
O   O1        1.0  0.79448  0.00899  0.74804  1.0000 -0.58389782
O   O2        1.0  0.75609  0.94096  0.50659  1.0000 -0.556387326
O   O3        1.0  0.20700  0.99124  0.26399  1.0000 -0.58389782
O   O4        1.0  0.24567  0.05932  0.50556  1.0000 -0.556387326
O   O5        1.0  0.79488  0.49110  0.24957  1.0000 -0.58389782
O   O6        1.0  0.75613  0.55898  0.00790  1.0000 -0.556387326
O   O7        1.0  0.20741  0.50877  0.76564  1.0000 -0.58389782
O   O8        1.0  0.24570  0.44063  0.00699  1.0000 -0.556387326
