# generated by PACMAN-DDEC6 charge (https://github.com/sxm13/PACMAN) 
data_structure
data_image0
_chemical_formula_structural       Zn4H12C16N12O8
_chemical_formula_sum              "Zn4 H12 C16 N12 O8"
_cell_length_a       12.4783
_cell_length_b       10.1886
_cell_length_c       10.034
_cell_angle_alpha    89.9998
_cell_angle_beta     122.536
_cell_angle_gamma    89.9973

_symmetry_space_group_name_H-M    "P 1"
_symmetry_Int_Tables_number       1

loop_
  _symmetry_equiv_pos_as_xyz
  'x, y, z'

loop_
  _atom_site_type_symbol
  _atom_site_label
  _atom_site_symmetry_multiplicity
  _atom_site_fract_x
  _atom_site_fract_y
  _atom_site_fract_z
  _atom_site_occupancy
  _atom_site_charge
Zn  Zn1       1.0  0.10806  0.08629  0.44687  1.0000 0.6873899665
Zn  Zn2       1.0  0.89211  0.58630  0.05294  1.0000 0.6873899665
Zn  Zn3       1.0  0.89212  0.91361  0.55295  1.0000 0.6873899665
Zn  Zn4       1.0  0.10806  0.41360  0.94687  1.0000 0.6873899665
H   H1        1.0  0.07392  0.85874  0.19919  1.0000 0.1165204304
H   H2        1.0  0.83893  0.66489  0.32115  1.0000 0.1165204304
H   H3        1.0  0.92624  0.35875  0.30061  1.0000 0.1165204304
H   H4        1.0  0.16124  0.16487  0.17867  1.0000 0.1165204304
H   H5        1.0  0.92628  0.14114  0.80065  1.0000 0.1165204304
H   H6        1.0  0.16123  0.33503  0.67866  1.0000 0.1165204304
H   H7        1.0  0.07391  0.64115  0.69919  1.0000 0.1165204304
H   H8        1.0  0.83893  0.83504  0.82115  1.0000 0.1165204304
H   H9        1.0  0.47318  0.96386  0.33522  1.0000 0.1320948493
H   H10       1.0  0.52701  0.03608  0.66462  1.0000 0.1320948493
H   H11       1.0  0.47316  0.53608  0.83519  1.0000 0.1320948493
H   H12       1.0  0.52700  0.46384  0.16460  1.0000 0.1320948493
C   C1        1.0  0.01887  0.83651  0.25142  1.0000 0.1608364046
C   C2        1.0  0.89921  0.73811  0.31403  1.0000 0.1608364046
C   C3        1.0  0.98130  0.33651  0.24838  1.0000 0.1608364046
C   C4        1.0  0.10096  0.23809  0.18578  1.0000 0.1608364046
C   C5        1.0  0.98132  0.16338  0.74842  1.0000 0.1608364046
C   C6        1.0  0.10096  0.26180  0.68578  1.0000 0.1608364046
C   C7        1.0  0.01886  0.66339  0.75142  1.0000 0.1608364046
C   C8        1.0  0.89920  0.76181  0.81403  1.0000 0.1608364046
C   C9        1.0  0.66874  0.98367  0.54170  1.0000 0.6030172076
C   C10       1.0  0.52794  0.98688  0.46092  1.0000 -0.1676165532
C   C11       1.0  0.47225  0.01305  0.53893  1.0000 -0.1676165532
C   C12       1.0  0.33145  0.01626  0.45815  1.0000 0.6030172076
C   C13       1.0  0.66872  0.51628  0.04167  1.0000 0.6030172076
C   C14       1.0  0.52792  0.51306  0.96089  1.0000 -0.1676165532
C   C15       1.0  0.47224  0.48686  0.03891  1.0000 -0.1676165532
C   C16       1.0  0.33144  0.48364  0.95812  1.0000 0.6030172076
N   N1        1.0  0.01617  0.91191  0.35816  1.0000 -0.1883828449
N   N2        1.0  0.93823  0.84884  0.39809  1.0000 -0.1883828449
N   N3        1.0  0.94543  0.72809  0.21904  1.0000 -0.3235396552
N   N4        1.0  0.98399  0.41191  0.14165  1.0000 -0.1883828449
N   N5        1.0  0.06194  0.34883  0.10173  1.0000 -0.1883828449
N   N6        1.0  0.05473  0.22808  0.28077  1.0000 -0.3235396552
N   N7        1.0  0.98401  0.08798  0.64167  1.0000 -0.1883828449
N   N8        1.0  0.06194  0.15107  0.60173  1.0000 -0.1883828449
N   N9        1.0  0.05475  0.27181  0.78079  1.0000 -0.3235396552
N   N10       1.0  0.01617  0.58798  0.85816  1.0000 -0.1883828449
N   N11       1.0  0.93823  0.65107  0.89808  1.0000 -0.1883828449
N   N12       1.0  0.94543  0.77182  0.71904  1.0000 -0.3235396552
O   O1        1.0  0.70876  0.94590  0.45213  1.0000 -0.5588636133
O   O2        1.0  0.73403  0.01497  0.68468  1.0000 -0.5504301819
O   O3        1.0  0.29143  0.05404  0.54771  1.0000 -0.5588636133
O   O4        1.0  0.26616  0.98495  0.31517  1.0000 -0.5504301819
O   O5        1.0  0.70874  0.55406  0.95211  1.0000 -0.5588636133
O   O6        1.0  0.73401  0.48498  0.18465  1.0000 -0.5504301819
O   O7        1.0  0.29142  0.44586  0.04769  1.0000 -0.5588636133
O   O8        1.0  0.26614  0.51494  0.81514  1.0000 -0.5504301819
