# generated by PACMAN-DDEC6 charge (https://github.com/sxm13/PACMAN) 
data_structure
data_image0
_chemical_formula_structural       Zn4H8C16N12O8
_chemical_formula_sum              "Zn4 H8 C16 N12 O8"
_cell_length_a       9.05293
_cell_length_b       9.97511
_cell_length_c       10.1933
_cell_angle_alpha    90.0276
_cell_angle_beta     82.033
_cell_angle_gamma    90.0062

_symmetry_space_group_name_H-M    "P 1"
_symmetry_Int_Tables_number       1

loop_
  _symmetry_equiv_pos_as_xyz
  'x, y, z'

loop_
  _atom_site_type_symbol
  _atom_site_label
  _atom_site_symmetry_multiplicity
  _atom_site_fract_x
  _atom_site_fract_y
  _atom_site_fract_z
  _atom_site_occupancy
  _atom_site_charge
Zn  Zn1       1.0  0.11999  0.08702  0.36312  1.0000 0.6839903781
Zn  Zn2       1.0  0.88000  0.58693  0.13687  1.0000 0.6839903781
Zn  Zn3       1.0  0.87997  0.91291  0.63695  1.0000 0.6839903781
Zn  Zn4       1.0  0.12002  0.41304  0.86315  1.0000 0.6839903781
H   H1        1.0  0.06792  0.86119  0.13827  1.0000 0.099003791
H   H2        1.0  0.82299  0.64981  0.45648  1.0000 0.099003791
H   H3        1.0  0.93207  0.36116  0.36175  1.0000 0.099003791
H   H4        1.0  0.17727  0.14988  0.04343  1.0000 0.099003791
H   H5        1.0  0.93207  0.13878  0.86182  1.0000 0.099003791
H   H6        1.0  0.17682  0.35017  0.54353  1.0000 0.099003791
H   H7        1.0  0.06811  0.63895  0.63831  1.0000 0.099003791
H   H8        1.0  0.82285  0.85013  0.95668  1.0000 0.099003791
C   C1        1.0  0.01564  0.83397  0.23759  1.0000 0.1461667904
C   C2        1.0  0.88969  0.72666  0.39958  1.0000 0.1429653356
C   C3        1.0  0.98438  0.33395  0.26241  1.0000 0.1461667904
C   C4        1.0  0.11046  0.22668  0.10038  1.0000 0.1429653356
C   C5        1.0  0.98432  0.16598  0.76249  1.0000 0.1461667904
C   C6        1.0  0.11019  0.27329  0.60047  1.0000 0.1429653356
C   C7        1.0  0.01575  0.66611  0.73765  1.0000 0.1461667904
C   C8        1.0  0.88963  0.77333  0.89970  1.0000 0.1429653356
C   C9        1.0  0.40811  0.99291  0.57848  1.0000 0.1785482132
C   C10       1.0  0.57373  0.97512  0.56640  1.0000 0.1708429942
C   C11       1.0  0.59192  0.00716  0.42140  1.0000 0.1785482132
C   C12       1.0  0.42629  0.02493  0.43347  1.0000 0.1708429942
C   C13       1.0  0.40814  0.50693  0.07853  1.0000 0.1785482132
C   C14       1.0  0.57376  0.52476  0.06645  1.0000 0.1708429942
C   C15       1.0  0.59189  0.49308  0.92134  1.0000 0.1785482132
C   C16       1.0  0.42627  0.47523  0.93342  1.0000 0.1708429942
N   N1        1.0  0.02437  0.90544  0.34662  1.0000 -0.213037528
N   N2        1.0  0.94069  0.83755  0.45058  1.0000 -0.2154079376
N   N3        1.0  0.93205  0.72223  0.26668  1.0000 -0.3288878909
N   N4        1.0  0.97564  0.40537  0.15342  1.0000 -0.213037528
N   N5        1.0  0.05939  0.33752  0.04944  1.0000 -0.2154079376
N   N6        1.0  0.06805  0.22225  0.23327  1.0000 -0.3288878909
N   N7        1.0  0.97557  0.09450  0.65347  1.0000 -0.213037528
N   N8        1.0  0.05922  0.16238  0.54950  1.0000 -0.2154079376
N   N9        1.0  0.06789  0.27773  0.73337  1.0000 -0.3288878909
N   N10       1.0  0.02446  0.59464  0.84662  1.0000 -0.213037528
N   N11       1.0  0.94069  0.66247  0.95061  1.0000 -0.2154079376
N   N12       1.0  0.93204  0.77778  0.76681  1.0000 -0.3288878909
O   O1        1.0  0.30393  0.98507  0.66855  1.0000 -0.3627070597
O   O2        1.0  0.65873  0.94513  0.64892  1.0000 -0.4004808774
O   O3        1.0  0.69611  0.01503  0.33134  1.0000 -0.3627070597
O   O4        1.0  0.34126  0.05483  0.35095  1.0000 -0.4004808774
O   O5        1.0  0.30399  0.51458  0.16865  1.0000 -0.3627070597
O   O6        1.0  0.65880  0.55451  0.14904  1.0000 -0.4004808774
O   O7        1.0  0.69604  0.48546  0.83121  1.0000 -0.3627070597
O   O8        1.0  0.34123  0.44545  0.85085  1.0000 -0.4004808774
