# generated by PACMAN-DDEC6 charge (https://github.com/sxm13/PACMAN) 
data_structure
data_image0
_chemical_formula_structural       Zn4H12C24S4N12O8
_chemical_formula_sum              "Zn4 H12 C24 S4 N12 O8"
_cell_length_a       15.6422
_cell_length_b       10.172
_cell_length_c       10.0308
_cell_angle_alpha    89.9976
_cell_angle_beta     112.153
_cell_angle_gamma    90.0007

_symmetry_space_group_name_H-M    "P 1"
_symmetry_Int_Tables_number       1

loop_
  _symmetry_equiv_pos_as_xyz
  'x, y, z'

loop_
  _atom_site_type_symbol
  _atom_site_label
  _atom_site_symmetry_multiplicity
  _atom_site_fract_x
  _atom_site_fract_y
  _atom_site_fract_z
  _atom_site_occupancy
  _atom_site_charge
Zn  Zn1       1.0  0.07861  0.08454  0.42607  1.0000 0.6917333536
Zn  Zn2       1.0  0.92323  0.58455  0.08755  1.0000 0.6917333536
Zn  Zn3       1.0  0.92326  0.91535  0.58755  1.0000 0.6917333536
Zn  Zn4       1.0  0.07858  0.41539  0.92602  1.0000 0.6917333536
H   H1        1.0  0.05182  0.85579  0.18690  1.0000 0.1125695212
H   H2        1.0  0.88210  0.66401  0.36912  1.0000 0.1125695212
H   H3        1.0  0.95006  0.35581  0.32673  1.0000 0.1125695212
H   H4        1.0  0.11982  0.16408  0.14456  1.0000 0.1125695212
H   H5        1.0  0.95013  0.14402  0.82681  1.0000 0.1125695212
H   H6        1.0  0.11962  0.33600  0.64430  1.0000 0.1125695212
H   H7        1.0  0.05180  0.64419  0.68691  1.0000 0.1125695212
H   H8        1.0  0.88208  0.83590  0.86919  1.0000 0.1125695212
H   H9        1.0  0.63517  0.07271  0.76832  1.0000 0.1455212019
H   H10       1.0  0.36666  0.92710  0.24523  1.0000 0.1455212019
H   H11       1.0  0.36662  0.57319  0.74498  1.0000 0.1455212019
H   H12       1.0  0.63500  0.42715  0.26804  1.0000 0.1455212019
C   C1        1.0  0.01239  0.83437  0.25350  1.0000 0.1603727702
C   C2        1.0  0.92571  0.73702  0.34643  1.0000 0.1603727702
C   C3        1.0  0.98952  0.33443  0.26016  1.0000 0.1603727702
C   C4        1.0  0.07621  0.23710  0.16725  1.0000 0.1603727702
C   C5        1.0  0.98951  0.16548  0.76014  1.0000 0.1603727702
C   C6        1.0  0.07608  0.26293  0.66709  1.0000 0.1603727702
C   C7        1.0  0.01236  0.66557  0.75351  1.0000 0.1603727702
C   C8        1.0  0.92569  0.76289  0.84646  1.0000 0.1603727702
C   C9        1.0  0.23979  0.00750  0.38334  1.0000 0.5665846996
C   C10       1.0  0.34268  0.00037  0.43357  1.0000 -0.0664724725
C   C11       1.0  0.39446  0.96256  0.35495  1.0000 -0.1693969585
C   C12       1.0  0.48980  0.97589  0.43637  1.0000 0.0033686163
C   C13       1.0  0.51204  0.02398  0.57715  1.0000 0.0033686163
C   C14       1.0  0.60738  0.03727  0.65858  1.0000 -0.1693969585
C   C15       1.0  0.65917  0.99943  0.57999  1.0000 -0.0637389265
C   C16       1.0  0.76205  0.99226  0.63024  1.0000 0.5665846996
C   C17       1.0  0.76197  0.50770  0.13014  1.0000 0.5665846996
C   C18       1.0  0.65908  0.50064  0.07985  1.0000 -0.0664724725
C   C19       1.0  0.60725  0.46272  0.15835  1.0000 -0.1693969585
C   C20       1.0  0.51191  0.47609  0.07688  1.0000 0.0033686163
C   C21       1.0  0.48972  0.52432  0.93616  1.0000 0.0033686163
C   C22       1.0  0.39439  0.53764  0.85468  1.0000 -0.1693969585
C   C23       1.0  0.34257  0.49970  0.93320  1.0000 -0.0664724725
C   C24       1.0  0.23968  0.49253  0.88296  1.0000 0.5665846996
S   S1        1.0  0.41159  0.05205  0.60763  1.0000 0.1125695212
S   S2        1.0  0.59026  0.94777  0.40591  1.0000 0.1039134346
S   S3        1.0  0.59022  0.55249  0.90581  1.0000 0.1125695212
S   S4        1.0  0.41144  0.44789  0.10724  1.0000 0.1125695212
N   N1        1.0  0.01105  0.91059  0.36078  1.0000 -0.1901502006
N   N2        1.0  0.95441  0.84834  0.42034  1.0000 -0.1901502006
N   N3        1.0  0.95899  0.72600  0.23995  1.0000 -0.3239698477
N   N4        1.0  0.99086  0.41066  0.15289  1.0000 -0.1901502006
N   N5        1.0  0.04752  0.34843  0.09335  1.0000 -0.1901502006
N   N6        1.0  0.04291  0.22605  0.27371  1.0000 -0.3239698477
N   N7        1.0  0.99085  0.08927  0.65287  1.0000 -0.1901502006
N   N8        1.0  0.04745  0.15156  0.59326  1.0000 -0.1901502006
N   N9        1.0  0.04283  0.27393  0.77361  1.0000 -0.3239698477
N   N10       1.0  0.01100  0.58931  0.86075  1.0000 -0.1901502006
N   N11       1.0  0.95436  0.65154  0.92032  1.0000 -0.1901502006
N   N12       1.0  0.95898  0.77396  0.74000  1.0000 -0.3239698477
O   O1        1.0  0.19191  0.97655  0.25626  1.0000 -0.5620208301
O   O2        1.0  0.21241  0.04926  0.48270  1.0000 -0.5620208301
O   O3        1.0  0.80993  0.02327  0.75728  1.0000 -0.5620208301
O   O4        1.0  0.78943  0.95040  0.53090  1.0000 -0.5620208301
O   O5        1.0  0.80982  0.47663  0.25719  1.0000 -0.5620208301
O   O6        1.0  0.78939  0.54953  0.03084  1.0000 -0.5620208301
O   O7        1.0  0.19179  0.52350  0.75591  1.0000 -0.5620208301
O   O8        1.0  0.21234  0.45068  0.98234  1.0000 -0.5620208301
